
  EPA STORM WATER MANAGEMENT MODEL - VERSION 5.1 (Build 5.1.13)
  --------------------------------------------------------------

  Grasbrook 
  
  
  *************
  Element Count
  *************
  Number of rain gages ...... 5
  Number of subcatchments ... 504
  Number of nodes ........... 1
  Number of links ........... 0
  Number of pollutants ...... 0
  Number of land uses ....... 0
  
  
  ****************
  Raingage Summary
  ****************
                                                      Data       Recording
  Name                 Data Source                    Type       Interval 
  ------------------------------------------------------------------------
  RG_2yr               ./data/rain_data/timeseries_2.txt
  RG_5yr               ./data/rain_data/timeseries_5.txt
  RG_10yr              ./data/rain_data/timeseries_10.txt
  RG_50yr              ./data/rain_data/timeseries_50.txt
  RG_100yr             ./data/rain_data/timeseries_100.txt
  
  
  ********************
  Subcatchment Summary
  ********************
  Name                       Area     Width   %Imperv    %Slope Rain Gage            Outlet              
  -----------------------------------------------------------------------------------------------------------
  Sub000                     0.02     11.40    100.00    2.0000 RG_100yr             outfall1            
  Sub001                     0.20     99.20    100.00    2.0000 RG_100yr             outfall1            
  Sub002                     0.05     23.50    100.00    2.0000 RG_100yr             outfall1            
  Sub003                     0.05     23.50    100.00    2.0000 RG_100yr             outfall1            
  Sub004                     0.06     19.20    100.00    2.0000 RG_100yr             outfall1            
  Sub005                     0.04     15.00    100.00    2.0000 RG_100yr             outfall1            
  Sub006                     0.04     15.00    100.00    2.0000 RG_100yr             outfall1            
  Sub007                     0.06     19.20    100.00    2.0000 RG_100yr             outfall1            
  Sub008                     0.06     19.20    100.00    2.0000 RG_100yr             outfall1            
  Sub009                     0.06     20.50    100.00    2.0000 RG_100yr             outfall1            
  Sub010                     0.06     20.50    100.00    2.0000 RG_100yr             outfall1            
  Sub011                     0.06     20.50    100.00    2.0000 RG_100yr             outfall1            
  Sub012                     0.06     19.20    100.00    2.0000 RG_100yr             outfall1            
  Sub013                     0.06     20.50    100.00    2.0000 RG_100yr             outfall1            
  Sub014                     0.06     20.50    100.00    2.0000 RG_100yr             outfall1            
  Sub015                     0.06     20.50    100.00    2.0000 RG_100yr             outfall1            
  Sub016                     0.06     19.20    100.00    2.0000 RG_100yr             outfall1            
  Sub017                     0.06     20.50    100.00    2.0000 RG_100yr             outfall1            
  Sub018                     0.06     20.50    100.00    2.0000 RG_100yr             outfall1            
  Sub019                     0.06     20.50    100.00    2.0000 RG_100yr             outfall1            
  Sub020                     0.06     19.20    100.00    2.0000 RG_100yr             outfall1            
  Sub021                     0.26     85.20    100.00    2.0000 RG_100yr             outfall1            
  Sub022                     0.03     11.40    100.00    2.0000 RG_100yr             outfall1            
  Sub023                     0.06     21.00    100.00    2.0000 RG_100yr             Sub357              
  Sub024                     0.05     18.30    100.00    2.0000 RG_100yr             Sub357              
  Sub025                     0.05     16.20    100.00    2.0000 RG_100yr             Sub357              
  Sub026                     0.06     21.20    100.00    2.0000 RG_100yr             Sub357              
  Sub027                     0.10     49.40    100.00    2.0000 RG_100yr             Sub357              
  Sub028                     0.07     24.10    100.00    2.0000 RG_100yr             Sub356              
  Sub029                     0.07     24.70    100.00    2.0000 RG_100yr             Sub356              
  Sub030                     0.05     16.90    100.00    2.0000 RG_100yr             Sub356              
  Sub031                     0.05     15.20    100.00    2.0000 RG_100yr             Sub356              
  Sub032                     0.05     16.30    100.00    2.0000 RG_100yr             Sub356              
  Sub033                     0.04     13.30    100.00    2.0000 RG_100yr             Sub356              
  Sub034                     0.09     45.60    100.00    2.0000 RG_100yr             Sub356              
  Sub035                     0.06     18.40    100.00    2.0000 RG_100yr             Sub418              
  Sub036                     0.07     24.60    100.00    2.0000 RG_100yr             Sub418              
  Sub037                     0.05     16.90    100.00    2.0000 RG_100yr             Sub418              
  Sub038                     0.06     21.30    100.00    2.0000 RG_100yr             Sub418              
  Sub039                     0.06     20.70    100.00    2.0000 RG_100yr             Sub418              
  Sub040                     0.04     13.30    100.00    2.0000 RG_100yr             Sub418              
  Sub041                     0.09     29.40    100.00    2.0000 RG_100yr             Sub418              
  Sub042                     0.05     23.40    100.00    2.0000 RG_100yr             Sub418              
  Sub043                     0.06     21.40    100.00    2.0000 RG_100yr             Sub399              
  Sub044                     0.07     24.70    100.00    2.0000 RG_100yr             Sub399              
  Sub045                     0.05     16.90    100.00    2.0000 RG_100yr             Sub399              
  Sub046                     0.05     27.10    100.00    2.0000 RG_100yr             Sub399              
  Sub047                     0.06     19.30    100.00    2.0000 RG_100yr             Sub399              
  Sub048                     0.06     18.60    100.00    2.0000 RG_100yr             Sub399              
  Sub049                     0.10     32.50    100.00    2.0000 RG_100yr             Sub399              
  Sub050                     0.04     13.30    100.00    2.0000 RG_100yr             Sub399              
  Sub051                     0.06     19.30    100.00    2.0000 RG_100yr             Sub399              
  Sub052                     0.06     18.90    100.00    2.0000 RG_100yr             Sub389              
  Sub053                     0.10     34.20    100.00    2.0000 RG_100yr             Sub389              
  Sub054                     0.08     27.90    100.00    2.0000 RG_100yr             Sub389              
  Sub055                     0.07     24.20    100.00    2.0000 RG_100yr             Sub389              
  Sub056                     0.04     13.30    100.00    2.0000 RG_100yr             Sub389              
  Sub057                     0.12     61.10    100.00    2.0000 RG_100yr             Sub389              
  Sub058                     0.06     19.10    100.00    2.0000 RG_100yr             Sub389              
  Sub059                     0.06     19.30    100.00    2.0000 RG_100yr             Sub389              
  Sub060                     0.12     60.50    100.00    2.0000 RG_100yr             outfall1            
  Sub061                     0.08     28.20    100.00    2.0000 RG_100yr             outfall1            
  Sub062                     0.12     40.00    100.00    2.0000 RG_100yr             outfall1            
  Sub063                     0.09     31.00    100.00    2.0000 RG_100yr             outfall1            
  Sub064                     0.09     31.00    100.00    2.0000 RG_100yr             outfall1            
  Sub065                     0.09     31.00    100.00    2.0000 RG_100yr             outfall1            
  Sub066                     0.93    309.10    100.00    2.0000 RG_100yr             outfall1            
  Sub067                     0.12     38.60    100.00    2.0000 RG_100yr             outfall1            
  Sub068                     0.67    224.20    100.00    2.0000 RG_100yr             outfall1            
  Sub069                     0.12     40.00    100.00    2.0000 RG_100yr             outfall1            
  Sub070                     0.43    144.70    100.00    2.0000 RG_100yr             outfall1            
  Sub071                     0.80    266.50    100.00    2.0000 RG_100yr             outfall1            
  Sub072                     0.79    529.90     80.00    2.0000 RG_100yr             outfall1            
  Sub073                     0.09     29.20    100.00    2.0000 RG_100yr             outfall1            
  Sub074                     0.26     86.00      0.00    2.0000 RG_100yr             outfall1            
  Sub075                     0.00      6.00    100.00    1.5000 RG_100yr             outfall1            
  Sub076                     0.05    119.00    100.00    1.5000 RG_100yr             outfall1            
  Sub077                     0.04    102.80    100.00    1.5000 RG_100yr             outfall1            
  Sub078                     0.00      2.30    100.00    1.5000 RG_100yr             outfall1            
  Sub079                     0.06     18.50      0.00    2.0000 RG_100yr             outfall1            
  Sub080                     0.02     45.00    100.00    1.5000 RG_100yr             outfall1            
  Sub081                     0.19    463.00    100.00    1.5000 RG_100yr             outfall1            
  Sub082                     0.03     70.80    100.00    1.5000 RG_100yr             outfall1            
  Sub083                     0.00      9.50    100.00    1.5000 RG_100yr             outfall1            
  Sub084                     0.00      5.50    100.00    1.5000 RG_100yr             outfall1            
  Sub085                     0.00      5.50    100.00    1.5000 RG_100yr             outfall1            
  Sub086                     0.00      5.50    100.00    1.5000 RG_100yr             outfall1            
  Sub087                     0.00      5.50    100.00    1.5000 RG_100yr             outfall1            
  Sub088                     0.00      6.80    100.00    1.5000 RG_100yr             outfall1            
  Sub089                     0.02      5.30      0.00    2.0000 RG_100yr             outfall1            
  Sub090                     0.02      6.00      0.00    2.0000 RG_100yr             outfall1            
  Sub091                     0.02      6.00      0.00    2.0000 RG_100yr             outfall1            
  Sub092                     0.03     10.30      0.00    2.0000 RG_100yr             outfall1            
  Sub093                     0.19    463.00    100.00    1.5000 RG_100yr             outfall1            
  Sub094                     0.18    456.50    100.00    1.5000 RG_100yr             outfall1            
  Sub095                     0.01     35.30    100.00    1.5000 RG_100yr             outfall1            
  Sub096                     0.02     41.80    100.00    1.5000 RG_100yr             outfall1            
  Sub097                     0.02     40.50    100.00    1.5000 RG_100yr             outfall1            
  Sub098                     0.05    130.80    100.00    1.5000 RG_100yr             outfall1            
  Sub099                     0.15    380.00    100.00    1.5000 RG_100yr             outfall1            
  Sub100                     0.00      7.30    100.00    1.5000 RG_100yr             outfall1            
  Sub101                     0.01     20.00    100.00    1.5000 RG_100yr             outfall1            
  Sub102                     0.01     21.00    100.00    1.5000 RG_100yr             outfall1            
  Sub103                     0.02     38.50    100.00    1.5000 RG_100yr             outfall1            
  Sub104                     0.43    144.60      0.00    2.0000 RG_100yr             outfall1            
  Sub105                     0.88    294.70      0.00    2.0000 RG_100yr             outfall1            
  Sub106                     0.04     19.50    100.00    1.5000 RG_100yr             outfall1            
  Sub107                     0.03     14.50    100.00    1.5000 RG_100yr             outfall1            
  Sub108                     0.04     18.80    100.00    1.5000 RG_100yr             outfall1            
  Sub109                     0.06     19.80      0.00    2.0000 RG_100yr             outfall1            
  Sub110                     0.02     42.30    100.00    1.5000 RG_100yr             outfall1            
  Sub111                     0.02     56.50    100.00    1.5000 RG_100yr             outfall1            
  Sub112                     0.02     59.50    100.00    1.5000 RG_100yr             outfall1            
  Sub113                     0.18    120.50     80.00    2.0000 RG_100yr             outfall1            
  Sub114                     0.01      6.70     80.00    2.0000 RG_100yr             outfall1            
  Sub115                     0.08    192.50    100.00    1.5000 RG_100yr             outfall1            
  Sub116                     0.02     48.00    100.00    1.5000 RG_100yr             outfall1            
  Sub117                     0.02     48.00    100.00    1.5000 RG_100yr             outfall1            
  Sub118                     0.02     48.00    100.00    1.5000 RG_100yr             outfall1            
  Sub119                     0.03     78.00    100.00    1.5000 RG_100yr             outfall1            
  Sub120                     0.00      7.30    100.00    1.5000 RG_100yr             outfall1            
  Sub121                     0.02     13.90     80.00    2.0000 RG_100yr             outfall1            
  Sub122                     0.02     11.60     80.00    2.0000 RG_100yr             outfall1            
  Sub123                     0.02     11.50     80.00    2.0000 RG_100yr             outfall1            
  Sub124                     0.02     14.90     80.00    2.0000 RG_100yr             outfall1            
  Sub125                     0.05     36.30     80.00    2.0000 RG_100yr             outfall1            
  Sub126                     0.04     26.70     80.00    2.0000 RG_100yr             outfall1            
  Sub127                     0.03     19.30     80.00    2.0000 RG_100yr             outfall1            
  Sub128                     0.00      3.80    100.00    1.5000 RG_100yr             outfall1            
  Sub129                     0.00      7.00    100.00    1.5000 RG_100yr             outfall1            
  Sub130                     0.01     12.50    100.00    1.5000 RG_100yr             outfall1            
  Sub131                     0.00      8.50    100.00    1.5000 RG_100yr             outfall1            
  Sub132                     0.01     33.30    100.00    1.5000 RG_100yr             outfall1            
  Sub133                     0.10     49.90    100.00    1.5000 RG_100yr             outfall1            
  Sub134                     0.01      4.60      0.00    2.0000 RG_100yr             outfall1            
  Sub135                     0.05     16.70      0.00    2.0000 RG_100yr             outfall1            
  Sub136                     0.07     22.80      0.00    2.0000 RG_100yr             outfall1            
  Sub137                     0.10     33.50      0.00    2.0000 RG_100yr             outfall1            
  Sub138                     0.12     38.50      0.00    2.0000 RG_100yr             outfall1            
  Sub139                     0.07     48.10     80.00    2.0000 RG_100yr             outfall1            
  Sub140                     0.04     24.30     80.00    2.0000 RG_100yr             outfall1            
  Sub141                     0.15    384.30    100.00    1.5000 RG_100yr             outfall1            
  Sub142                     0.14    355.80    100.00    1.5000 RG_100yr             outfall1            
  Sub143                     0.15    383.00    100.00    1.5000 RG_100yr             outfall1            
  Sub144                     0.23    581.30    100.00    1.5000 RG_100yr             outfall1            
  Sub145                     0.00      6.50    100.00    1.5000 RG_100yr             outfall1            
  Sub146                     0.19     62.50      0.00    2.0000 RG_100yr             outfall1            
  Sub147                     0.10    246.30    100.00    1.5000 RG_100yr             outfall1            
  Sub148                     0.06    143.30    100.00    1.5000 RG_100yr             outfall1            
  Sub149                     0.09    219.30    100.00    1.5000 RG_100yr             outfall1            
  Sub150                     0.03     64.50    100.00    1.5000 RG_100yr             outfall1            
  Sub151                     0.02     53.30    100.00    1.5000 RG_100yr             outfall1            
  Sub152                     0.00     10.30    100.00    1.5000 RG_100yr             outfall1            
  Sub153                     0.01     22.00    100.00    1.5000 RG_100yr             outfall1            
  Sub154                     0.26     88.10      0.00    2.0000 RG_100yr             outfall1            
  Sub155                     0.03     66.00    100.00    1.5000 RG_100yr             outfall1            
  Sub156                     0.04     94.80    100.00    1.5000 RG_100yr             outfall1            
  Sub157                     0.01     19.30    100.00    1.5000 RG_100yr             outfall1            
  Sub158                     0.01     22.80    100.00    1.5000 RG_100yr             outfall1            
  Sub159                     0.00      5.50    100.00    1.5000 RG_100yr             outfall1            
  Sub160                     0.01     16.80    100.00    1.5000 RG_100yr             outfall1            
  Sub161                     0.04    105.80    100.00    1.5000 RG_100yr             outfall1            
  Sub162                     0.31    102.60      0.00    2.0000 RG_100yr             outfall1            
  Sub163                     0.03     18.70     80.00    2.0000 RG_100yr             outfall1            
  Sub164                     0.09     29.90      0.00    2.0000 RG_100yr             outfall1            
  Sub165                     0.03     68.50    100.00    1.5000 RG_100yr             outfall1            
  Sub166                     0.06    158.30    100.00    1.5000 RG_100yr             outfall1            
  Sub167                     0.02     61.00    100.00    2.5000 RG_100yr             outfall1            
  Sub168                     0.01     31.80    100.00    1.5000 RG_100yr             outfall1            
  Sub169                     0.02     40.50    100.00    1.5000 RG_100yr             outfall1            
  Sub170                     0.05     23.10    100.00    1.5000 RG_100yr             outfall1            
  Sub171                     0.02     11.40    100.00    1.5000 RG_100yr             outfall1            
  Sub172                     0.02     10.40    100.00    1.5000 RG_100yr             outfall1            
  Sub173                     0.20    133.70     80.00    2.0000 RG_100yr             outfall1            
  Sub174                     1.05    523.70    100.00    1.5000 RG_100yr             outfall1            
  Sub175                     0.00     11.30    100.00    1.5000 RG_100yr             outfall1            
  Sub176                     0.00     11.30    100.00    1.5000 RG_100yr             outfall1            
  Sub177                     0.04     19.20    100.00    1.5000 RG_100yr             outfall1            
  Sub178                     0.01      6.10    100.00    1.5000 RG_100yr             outfall1            
  Sub179                     0.07     43.30     80.00    2.0000 RG_100yr             outfall1            
  Sub180                     0.06    157.50    100.00    1.5000 RG_100yr             outfall1            
  Sub181                     0.24     78.80      0.00    2.0000 RG_100yr             outfall1            
  Sub182                     0.14     47.00      0.00    2.0000 RG_100yr             outfall1            
  Sub183                     0.01      4.50      0.00    2.0000 RG_100yr             outfall1            
  Sub184                     0.12     40.90      0.00    2.0000 RG_100yr             outfall1            
  Sub185                     0.05     15.70      0.00    2.0000 RG_100yr             outfall1            
  Sub186                     0.22     74.60      0.00    2.0000 RG_100yr             outfall1            
  Sub187                     0.15     50.00      0.00    2.0000 RG_100yr             outfall1            
  Sub188                     0.10     34.90      0.00    2.0000 RG_100yr             outfall1            
  Sub189                     0.09     28.70      0.00    2.0000 RG_100yr             outfall1            
  Sub190                     0.18     60.50      0.00    2.0000 RG_100yr             outfall1            
  Sub191                     0.01      4.30      0.00    2.0000 RG_100yr             outfall1            
  Sub192                     0.00      6.80    100.00    1.5000 RG_100yr             outfall1            
  Sub193                     0.00      1.60      0.00    2.0000 RG_100yr             outfall1            
  Sub194                     0.04     14.50      0.00    2.0000 RG_100yr             outfall1            
  Sub195                     0.01      3.90      0.00    2.0000 RG_100yr             outfall1            
  Sub196                     0.15     51.00      0.00    2.0000 RG_100yr             outfall1            
  Sub197                     0.01     31.30    100.00    2.5000 RG_100yr             outfall1            
  Sub198                     0.03     20.50     80.00    2.0000 RG_100yr             outfall1            
  Sub199                     0.09    213.80    100.00    1.5000 RG_100yr             outfall1            
  Sub200                     0.11    264.00    100.00    1.5000 RG_100yr             outfall1            
  Sub201                     0.23     77.80      0.00    2.0000 RG_100yr             outfall1            
  Sub202                     0.17     57.40      0.00    2.0000 RG_100yr             outfall1            
  Sub203                     0.05     16.70      0.00    2.0000 RG_100yr             outfall1            
  Sub204                     0.04     14.70      0.00    2.0000 RG_100yr             outfall1            
  Sub205                     0.04     14.70      0.00    2.0000 RG_100yr             outfall1            
  Sub206                     0.05     16.70      0.00    2.0000 RG_100yr             outfall1            
  Sub207                     0.17     56.60      0.00    2.0000 RG_100yr             outfall1            
  Sub208                     0.08     40.10    100.00    1.5000 RG_100yr             outfall1            
  Sub209                     0.00      4.00    100.00    1.5000 RG_100yr             outfall1            
  Sub210                     0.02      5.60      0.00    2.0000 RG_100yr             outfall1            
  Sub211                     0.18     89.30    100.00    1.5000 RG_100yr             outfall1            
  Sub212                     0.01     32.50    100.00    1.5000 RG_100yr             outfall1            
  Sub213                     0.00      4.00    100.00    1.5000 RG_100yr             outfall1            
  Sub214                     0.04     97.30    100.00    1.5000 RG_100yr             outfall1            
  Sub215                     0.01     17.50    100.00    1.5000 RG_100yr             outfall1            
  Sub216                     0.03     11.60      0.00    2.0000 RG_100yr             outfall1            
  Sub217                     0.03     66.80    100.00    1.5000 RG_100yr             outfall1            
  Sub218                     0.00      0.80    100.00    1.5000 RG_100yr             outfall1            
  Sub219                     0.00     11.30    100.00    1.5000 RG_100yr             outfall1            
  Sub220                     0.00      0.20      0.00    2.0000 RG_100yr             outfall1            
  Sub221                     0.00      1.60    100.00    1.5000 RG_100yr             outfall1            
  Sub222                     0.00      0.00      0.00    2.0000 RG_100yr             outfall1            
  Sub223                     0.07     21.90      0.00    2.0000 RG_100yr             outfall1            
  Sub224                     0.04     24.00     80.00    2.0000 RG_100yr             outfall1            
  Sub225                     0.07     47.00     80.00    2.0000 RG_100yr             outfall1            
  Sub226                     0.06     40.60     80.00    2.0000 RG_100yr             outfall1            
  Sub227                     0.04     24.70     80.00    2.0000 RG_100yr             outfall1            
  Sub228                     0.00      5.30    100.00    1.5000 RG_100yr             outfall1            
  Sub229                     0.07    174.00    100.00    1.5000 RG_100yr             outfall1            
  Sub230                     0.00      6.00    100.00    1.5000 RG_100yr             outfall1            
  Sub231                     0.02      6.60      0.00    2.0000 RG_100yr             outfall1            
  Sub232                     0.08     27.00      0.00    2.0000 RG_100yr             outfall1            
  Sub233                     0.04     13.30      0.00    2.0000 RG_100yr             outfall1            
  Sub234                     0.00      5.80    100.00    1.5000 RG_100yr             outfall1            
  Sub235                     0.00      1.20      0.00    2.0000 RG_100yr             outfall1            
  Sub236                     0.00      5.80    100.00    1.5000 RG_100yr             outfall1            
  Sub237                     0.08    191.80    100.00    1.5000 RG_100yr             outfall1            
  Sub238                     0.07     48.60     80.00    2.0000 RG_100yr             outfall1            
  Sub239                     0.13     66.90    100.00    1.5000 RG_100yr             outfall1            
  Sub240                     0.08     39.30    100.00    1.5000 RG_100yr             outfall1            
  Sub241                     0.01     26.50    100.00    1.5000 RG_100yr             outfall1            
  Sub242                     0.10    249.80    100.00    1.5000 RG_100yr             outfall1            
  Sub243                     0.86    573.60     80.00    2.0000 RG_100yr             outfall1            
  Sub244                     0.02     38.00    100.00    1.5000 RG_100yr             outfall1            
  Sub245                     0.09     28.90      0.00    2.0000 RG_100yr             outfall1            
  Sub246                     0.20     65.80      0.00    2.0000 RG_100yr             outfall1            
  Sub247                     0.18     59.90      0.00    2.0000 RG_100yr             outfall1            
  Sub248                     0.15     72.90    100.00    1.5000 RG_100yr             outfall1            
  Sub249                     0.22     74.40      0.00    2.0000 RG_100yr             outfall1            
  Sub250                     0.08     26.70      0.00    2.0000 RG_100yr             outfall1            
  Sub251                     0.02     52.80    100.00    1.5000 RG_100yr             outfall1            
  Sub252                     0.20    130.10     80.00    2.0000 RG_100yr             outfall1            
  Sub253                     0.02     13.30     80.00    2.0000 RG_100yr             outfall1            
  Sub254                     0.31    104.40      0.00    2.0000 RG_100yr             outfall1            
  Sub255                     0.01     21.00    100.00    1.5000 RG_100yr             outfall1            
  Sub256                     0.00      0.30      0.00    2.0000 RG_100yr             outfall1            
  Sub257                     0.03     11.40      0.00    2.0000 RG_100yr             outfall1            
  Sub258                     0.06     20.70      0.00    2.0000 RG_100yr             outfall1            
  Sub259                     0.02     50.00    100.00    1.5000 RG_100yr             outfall1            
  Sub260                     0.00     10.00    100.00    1.5000 RG_100yr             outfall1            
  Sub261                     0.06    151.30    100.00    1.5000 RG_100yr             outfall1            
  Sub262                     0.76    252.30      0.00    2.0000 RG_100yr             outfall1            
  Sub263                     0.00      4.80    100.00    1.5000 RG_100yr             outfall1            
  Sub264                     0.27    177.90     80.00    2.0000 RG_100yr             outfall1            
  Sub265                     0.12     40.00      0.00    2.0000 RG_100yr             outfall1            
  Sub266                     0.03     20.00     80.00    2.0000 RG_100yr             outfall1            
  Sub267                     0.03     16.70     80.00    2.0000 RG_100yr             outfall1            
  Sub268                     0.03     20.00     80.00    2.0000 RG_100yr             outfall1            
  Sub269                     0.03      9.60      0.00    2.0000 RG_100yr             outfall1            
  Sub270                     0.00      1.50      0.00    2.0000 RG_100yr             outfall1            
  Sub271                     0.03      9.50      0.00    2.0000 RG_100yr             outfall1            
  Sub272                     0.09     30.50      0.00    2.0000 RG_100yr             outfall1            
  Sub273                     0.05     17.80      0.00    2.0000 RG_100yr             outfall1            
  Sub274                     0.07     24.70      0.00    2.0000 RG_100yr             outfall1            
  Sub275                     0.00      1.10      0.00    2.0000 RG_100yr             outfall1            
  Sub276                     0.02     14.90     80.00    2.0000 RG_100yr             outfall1            
  Sub277                     0.35   1175.00    100.00    2.5000 RG_100yr             outfall1            
  Sub278                     0.13    423.30    100.00    2.5000 RG_100yr             outfall1            
  Sub279                     0.03     85.70    100.00    2.5000 RG_100yr             outfall1            
  Sub280                     0.00      1.20      0.00    2.0000 RG_100yr             outfall1            
  Sub281                     0.05     36.50     80.00    2.0000 RG_100yr             outfall1            
  Sub282                     0.03    108.70    100.00    2.5000 RG_100yr             outfall1            
  Sub283                     0.40   1335.30    100.00    2.5000 RG_100yr             outfall1            
  Sub284                     0.03    111.00    100.00    2.5000 RG_100yr             outfall1            
  Sub285                     0.40   1326.70    100.00    2.5000 RG_100yr             outfall1            
  Sub286                     0.34   1135.30    100.00    2.5000 RG_100yr             outfall1            
  Sub287                     0.22    730.70    100.00    2.5000 RG_100yr             outfall1            
  Sub288                     0.02     15.30     80.00    2.0000 RG_100yr             outfall1            
  Sub289                     0.00      3.30    100.00    1.5000 RG_100yr             outfall1            
  Sub290                     0.02     14.40     80.00    2.0000 RG_100yr             outfall1            
  Sub291                     0.00      2.30    100.00    1.5000 RG_100yr             outfall1            
  Sub292                     0.04     91.00    100.00    1.5000 RG_100yr             outfall1            
  Sub293                     0.01     23.80    100.00    1.5000 RG_100yr             outfall1            
  Sub294                     0.02     50.30    100.00    1.5000 RG_100yr             outfall1            
  Sub295                     0.01     16.30    100.00    1.5000 RG_100yr             outfall1            
  Sub296                     0.15     50.30      0.00    2.0000 RG_100yr             outfall1            
  Sub297                     0.05     17.20      0.00    2.0000 RG_100yr             outfall1            
  Sub298                     0.00      7.50    100.00    1.5000 RG_100yr             outfall1            
  Sub299                     0.00      4.00    100.00    1.5000 RG_100yr             outfall1            
  Sub300                     0.00      2.30    100.00    1.5000 RG_100yr             outfall1            
  Sub301                     0.00      6.30    100.00    1.5000 RG_100yr             outfall1            
  Sub302                     0.02     11.70    100.00    1.5000 RG_100yr             outfall1            
  Sub303                     0.03     69.80    100.00    1.5000 RG_100yr             outfall1            
  Sub304                     0.04     19.30    100.00    1.5000 RG_100yr             outfall1            
  Sub305                     0.02      7.70    100.00    1.5000 RG_100yr             outfall1            
  Sub306                     0.00      7.00    100.00    1.5000 RG_100yr             outfall1            
  Sub307                     0.00      4.00    100.00    1.5000 RG_100yr             outfall1            
  Sub308                     0.00      0.30      0.00    2.0000 RG_100yr             outfall1            
  Sub309                     0.02      9.60    100.00    1.5000 RG_100yr             outfall1            
  Sub310                     0.00      4.00    100.00    1.5000 RG_100yr             outfall1            
  Sub311                     0.00      0.30      0.00    2.0000 RG_100yr             outfall1            
  Sub312                     0.01      7.40    100.00    1.5000 RG_100yr             outfall1            
  Sub313                     0.00      8.80    100.00    1.5000 RG_100yr             outfall1            
  Sub314                     0.00      0.30      0.00    2.0000 RG_100yr             outfall1            
  Sub315                     0.00      5.00    100.00    1.5000 RG_100yr             outfall1            
  Sub316                     0.00      1.50    100.00    1.5000 RG_100yr             outfall1            
  Sub317                     0.01      5.40    100.00    1.5000 RG_100yr             outfall1            
  Sub318                     0.00      9.00    100.00    1.5000 RG_100yr             outfall1            
  Sub319                     0.00      4.80    100.00    1.5000 RG_100yr             outfall1            
  Sub320                     0.01      2.80    100.00    1.5000 RG_100yr             outfall1            
  Sub321                     0.01      6.40    100.00    1.5000 RG_100yr             outfall1            
  Sub322                     0.00      6.30    100.00    1.5000 RG_100yr             outfall1            
  Sub323                     0.00      4.00    100.00    1.5000 RG_100yr             outfall1            
  Sub324                     0.04     19.20    100.00    1.5000 RG_100yr             outfall1            
  Sub325                     0.04     19.20    100.00    1.5000 RG_100yr             outfall1            
  Sub326                     0.01      2.50      0.00    2.0000 RG_100yr             outfall1            
  Sub327                     0.00      1.50    100.00    1.5000 RG_100yr             outfall1            
  Sub328                     0.00      1.50    100.00    1.5000 RG_100yr             outfall1            
  Sub329                     0.01      3.10    100.00    1.5000 RG_100yr             outfall1            
  Sub330                     0.00      1.50    100.00    1.5000 RG_100yr             outfall1            
  Sub331                     0.01      3.00    100.00    1.5000 RG_100yr             outfall1            
  Sub332                     0.00      1.50    100.00    1.5000 RG_100yr             outfall1            
  Sub333                     0.01      3.00    100.00    1.5000 RG_100yr             outfall1            
  Sub334                     0.00      1.50    100.00    1.5000 RG_100yr             outfall1            
  Sub335                     0.00      7.30    100.00    1.5000 RG_100yr             outfall1            
  Sub336                     0.05     22.90    100.00    1.5000 RG_100yr             Sub357              
  Sub337                     0.00      4.50    100.00    1.5000 RG_100yr             Sub357              
  Sub338                     0.00      3.00    100.00    1.5000 RG_100yr             outfall1            
  Sub339                     0.00     11.30    100.00    1.5000 RG_100yr             outfall1            
  Sub340                     0.01      3.40      0.00    2.0000 RG_100yr             Sub357              
  Sub341                     0.01      3.00      0.00    2.0000 RG_100yr             Sub357              
  Sub342                     0.02      5.80      0.00    2.0000 RG_100yr             Sub357              
  Sub343                     0.01      2.60      0.00    2.0000 RG_100yr             Sub357              
  Sub344                     0.03     18.00     80.00    2.0000 RG_100yr             Sub357              
  Sub345                     0.02     11.70     80.00    2.0000 RG_100yr             Sub357              
  Sub346                     0.01      6.10     80.00    2.0000 RG_100yr             Sub357              
  Sub347                     0.01      6.40     80.00    2.0000 RG_100yr             outfall1            
  Sub348                     0.02     13.30     80.00    2.0000 RG_100yr             outfall1            
  Sub349                     0.13     42.40      0.00    2.0000 RG_100yr             outfall1            
  Sub350                     0.19     64.60      0.00    2.0000 RG_100yr             outfall1            
  Sub351                     0.00      4.50    100.00    1.5000 RG_100yr             outfall1            
  Sub352                     0.00     10.00    100.00    1.5000 RG_100yr             outfall1            
  Sub353                     0.05     31.00     80.00    2.0000 RG_100yr             Sub356              
  Sub354                     0.01      8.30     80.00    2.0000 RG_100yr             Sub356              
  Sub355                     0.01      1.80      0.00    2.0000 RG_100yr             Sub356              
  Sub356                     0.34    111.70      0.00    2.0000 RG_100yr             Sub490              
  Sub357                     0.18     60.10      0.00    2.0000 RG_100yr             Sub491              
  Sub358                     0.05     17.30      0.00    2.0000 RG_100yr             Sub356              
  Sub359                     0.02      6.60      0.00    2.0000 RG_100yr             Sub356              
  Sub360                     0.01      3.10      0.00    2.0000 RG_100yr             Sub356              
  Sub361                     0.05     17.70      0.00    2.0000 RG_100yr             Sub356              
  Sub362                     0.00      8.80    100.00    1.5000 RG_100yr             outfall1            
  Sub363                     0.00      8.00    100.00    1.5000 RG_100yr             outfall1            
  Sub364                     0.00      1.30    100.00    1.5000 RG_100yr             outfall1            
  Sub365                     0.00      7.00    100.00    1.5000 RG_100yr             outfall1            
  Sub366                     0.00      8.00    100.00    1.5000 RG_100yr             outfall1            
  Sub367                     0.00      4.50    100.00    1.5000 RG_100yr             outfall1            
  Sub368                     0.00      2.50    100.00    1.5000 RG_100yr             outfall1            
  Sub369                     0.00      1.30    100.00    1.5000 RG_100yr             outfall1            
  Sub370                     0.00     11.00    100.00    1.5000 RG_100yr             outfall1            
  Sub371                     0.00     11.00    100.00    1.5000 RG_100yr             outfall1            
  Sub372                     0.00      2.50    100.00    1.5000 RG_100yr             outfall1            
  Sub373                     0.00      8.50    100.00    1.5000 RG_100yr             outfall1            
  Sub374                     0.00      3.80    100.00    1.5000 RG_100yr             outfall1            
  Sub375                     0.00      5.00    100.00    1.5000 RG_100yr             outfall1            
  Sub376                     0.00      4.50    100.00    1.5000 RG_100yr             outfall1            
  Sub377                     0.00      9.80    100.00    1.5000 RG_100yr             outfall1            
  Sub378                     0.00      3.50    100.00    1.5000 RG_100yr             outfall1            
  Sub379                     0.00      9.30    100.00    1.5000 RG_100yr             outfall1            
  Sub380                     0.00      3.30    100.00    1.5000 RG_100yr             outfall1            
  Sub381                     0.00      4.50    100.00    1.5000 RG_100yr             outfall1            
  Sub382                     0.00      9.80    100.00    1.5000 RG_100yr             outfall1            
  Sub383                     0.00      3.50    100.00    1.5000 RG_100yr             outfall1            
  Sub384                     0.00      7.30    100.00    1.5000 RG_100yr             outfall1            
  Sub385                     0.00      1.30    100.00    1.5000 RG_100yr             outfall1            
  Sub386                     0.00      2.50    100.00    1.5000 RG_100yr             outfall1            
  Sub387                     0.27     88.80      0.00    2.0000 RG_100yr             outfall1            
  Sub388                     0.02      8.00      0.00    2.0000 RG_100yr             outfall1            
  Sub389                     0.47    158.00      0.00    2.0000 RG_100yr             Sub487              
  Sub390                     0.18     59.60      0.00    2.0000 RG_100yr             Sub389              
  Sub391                     0.07     48.10     80.00    2.0000 RG_100yr             Sub389              
  Sub392                     0.02      6.20      0.00    2.0000 RG_100yr             Sub399              
  Sub393                     0.01      3.10      0.00    2.0000 RG_100yr             Sub399              
  Sub394                     0.02      6.50      0.00    2.0000 RG_100yr             Sub399              
  Sub395                     0.05     17.50      0.00    2.0000 RG_100yr             Sub399              
  Sub396                     0.01      3.10      0.00    2.0000 RG_100yr             Sub399              
  Sub397                     0.03      8.40      0.00    2.0000 RG_100yr             Sub399              
  Sub398                     0.12     59.30    100.00    1.5000 RG_100yr             outfall1            
  Sub399                     0.54    178.70      0.00    2.0000 RG_100yr             Sub488              
  Sub400                     0.07     48.10     80.00    2.0000 RG_100yr             Sub399              
  Sub401                     0.06     42.10     80.00    2.0000 RG_100yr             Sub418              
  Sub402                     0.05     17.20      0.00    2.0000 RG_100yr             Sub418              
  Sub403                     0.01      3.10      0.00    2.0000 RG_100yr             Sub418              
  Sub404                     0.02      5.90      0.00    2.0000 RG_100yr             Sub418              
  Sub405                     0.01      3.10      0.00    2.0000 RG_100yr             Sub418              
  Sub406                     0.05     17.40      0.00    2.0000 RG_100yr             Sub418              
  Sub407                     0.02      6.30      0.00    2.0000 RG_100yr             Sub418              
  Sub408                     0.02      8.00      0.00    2.0000 RG_100yr             outfall1            
  Sub409                     0.02      8.00      0.00    2.0000 RG_100yr             outfall1            
  Sub410                     0.02      8.10      0.00    2.0000 RG_100yr             outfall1            
  Sub411                     0.02      7.70      0.00    2.0000 RG_100yr             Sub399              
  Sub412                     0.02     13.30     80.00    2.0000 RG_100yr             outfall1            
  Sub413                     0.02     13.30     80.00    2.0000 RG_100yr             outfall1            
  Sub414                     0.17     56.10      0.00    2.0000 RG_100yr             outfall1            
  Sub415                     0.03     16.70     80.00    2.0000 RG_100yr             outfall1            
  Sub416                     0.01     10.00     80.00    2.0000 RG_100yr             outfall1            
  Sub417                     0.59   1958.70    100.00    2.5000 RG_100yr             outfall1            
  Sub418                     0.50    165.80      0.00    2.0000 RG_100yr             Sub489              
  Sub419                     0.01      6.80     80.00    2.0000 RG_100yr             outfall1            
  Sub420                     0.02     11.90     80.00    2.0000 RG_100yr             outfall1            
  Sub421                     0.10     66.40     80.00    2.0000 RG_100yr             outfall1            
  Sub422                     0.07     44.30     80.00    2.0000 RG_100yr             outfall1            
  Sub423                     0.05     16.70      0.00    2.0000 RG_100yr             outfall1            
  Sub424                     0.04     24.20     80.00    2.0000 RG_100yr             outfall1            
  Sub425                     0.00      5.00    100.00    1.5000 RG_100yr             outfall1            
  Sub426                     0.00      2.50    100.00    1.5000 RG_100yr             outfall1            
  Sub427                     0.00      3.30    100.00    1.5000 RG_100yr             outfall1            
  Sub428                     0.00      1.30    100.00    1.5000 RG_100yr             outfall1            
  Sub429                     0.00      2.50    100.00    1.5000 RG_100yr             outfall1            
  Sub430                     0.05     16.20      0.00    2.0000 RG_100yr             outfall1            
  Sub431                     0.04    120.00    100.00    2.5000 RG_100yr             outfall1            
  Sub432                     0.00      1.10      0.00    2.0000 RG_100yr             outfall1            
  Sub433                     0.01      3.50      0.00    2.0000 RG_100yr             outfall1            
  Sub434                     0.01      3.50      0.00    2.0000 RG_100yr             outfall1            
  Sub435                     0.01      2.40      0.00    2.0000 RG_100yr             outfall1            
  Sub436                     0.00      1.10      0.00    2.0000 RG_100yr             outfall1            
  Sub437                     0.01      3.50      0.00    2.0000 RG_100yr             outfall1            
  Sub438                     0.01      3.50      0.00    2.0000 RG_100yr             outfall1            
  Sub439                     0.01      2.40      0.00    2.0000 RG_100yr             outfall1            
  Sub440                     0.01      2.40      0.00    2.0000 RG_100yr             outfall1            
  Sub441                     0.01      3.50      0.00    2.0000 RG_100yr             outfall1            
  Sub442                     0.01      3.50      0.00    2.0000 RG_100yr             outfall1            
  Sub443                     0.00      1.10      0.00    2.0000 RG_100yr             outfall1            
  Sub444                     0.01      2.30      0.00    2.0000 RG_100yr             outfall1            
  Sub445                     0.01      2.70      0.00    2.0000 RG_100yr             outfall1            
  Sub446                     0.01      2.70      0.00    2.0000 RG_100yr             outfall1            
  Sub447                     0.01      3.40      0.00    2.0000 RG_100yr             outfall1            
  Sub448                     0.00      1.10      0.00    2.0000 RG_100yr             outfall1            
  Sub449                     0.22    556.80    100.00    1.5000 RG_100yr             outfall1            
  Sub450                     0.07    164.80    100.00    1.5000 RG_100yr             outfall1            
  Sub451                     0.24    795.00    100.00    2.5000 RG_100yr             outfall1            
  Sub452                     0.05     36.40     80.00    2.0000 RG_100yr             outfall1            
  Sub453                     0.05     24.00    100.00    2.0000 RG_100yr             outfall1            
  Sub454                     0.05     23.50    100.00    2.0000 RG_100yr             outfall1            
  Sub455                     0.30     98.60    100.00    2.0000 RG_100yr             outfall1            
  Sub456                     0.15     76.40    100.00    2.0000 RG_100yr             outfall1            
  Sub457                     0.88    294.20    100.00    2.0000 RG_100yr             outfall1            
  Sub458                     1.51    504.40    100.00    2.0000 RG_100yr             outfall1            
  Sub459                     0.44    147.90    100.00    2.0000 RG_100yr             outfall1            
  Sub460                     0.48    159.70    100.00    2.0000 RG_100yr             outfall1            
  Sub461                     0.50    336.10     80.00    2.0000 RG_100yr             outfall1            
  Sub462                     0.20     68.20    100.00    2.0000 RG_100yr             outfall1            
  Sub463                     0.26     88.10    100.00    2.0000 RG_100yr             outfall1            
  Sub464                     0.35    117.70    100.00    2.0000 RG_100yr             outfall1            
  Sub465                     0.33    109.40    100.00    2.0000 RG_100yr             outfall1            
  Sub466                     0.09     29.90    100.00    2.0000 RG_100yr             outfall1            
  Sub467                     0.09     29.30    100.00    2.0000 RG_100yr             outfall1            
  Sub468                     0.21     68.80    100.00    2.0000 RG_100yr             outfall1            
  Sub469                     0.01     14.50    100.00    1.5000 RG_100yr             outfall1            
  Sub470                     0.01     20.30    100.00    1.5000 RG_100yr             outfall1            
  Sub471                     0.00     10.30    100.00    1.5000 RG_100yr             outfall1            
  Sub472                     0.01     15.00    100.00    1.5000 RG_100yr             outfall1            
  Sub473                     0.00      7.80    100.00    1.5000 RG_100yr             outfall1            
  Sub474                     0.03     11.30    100.00    2.0000 RG_100yr             outfall1            
  Sub475                     0.03     11.40    100.00    2.0000 RG_100yr             outfall1            
  Sub476                     1.19    395.80      0.00    2.0000 RG_100yr             outfall1            
  Sub477                     0.26     88.00      0.00    2.0000 RG_100yr             outfall1            
  Sub478                     0.42    139.50      0.00    2.0000 RG_100yr             outfall1            
  Sub479                     0.28     92.60      0.00    2.0000 RG_100yr             outfall1            
  Sub480                     0.33    815.80    100.00    1.5000 RG_100yr             outfall1            
  Sub481                     0.18    455.00    100.00    1.5000 RG_100yr             outfall1            
  Sub482                     0.13    320.30    100.00    1.5000 RG_100yr             outfall1            
  Sub483                     0.13    323.80    100.00    1.5000 RG_100yr             outfall1            
  Sub484                     0.13    334.80    100.00    1.5000 RG_100yr             outfall1            
  Sub485                     0.10    261.50    100.00    1.5000 RG_100yr             outfall1            
  Sub486                     0.22    724.70    100.00    2.5000 RG_100yr             outfall1            
  Sub487                     0.54   1802.00    100.00    2.5000 RG_100yr             outfall1            
  Sub488                     0.36   1201.30    100.00    2.5000 RG_100yr             outfall1            
  Sub489                     0.37   1219.00    100.00    2.5000 RG_100yr             outfall1            
  Sub490                     0.36   1192.30    100.00    2.5000 RG_100yr             outfall1            
  Sub491                     0.30    997.30    100.00    2.5000 RG_100yr             outfall1            
  Sub492                     0.21    704.70    100.00    2.5000 RG_100yr             outfall1            
  Sub493                     0.25    837.00    100.00    2.5000 RG_100yr             outfall1            
  Sub494                     0.29    966.70    100.00    2.5000 RG_100yr             outfall1            
  Sub495                     0.37   1219.30    100.00    2.5000 RG_100yr             outfall1            
  Sub496                     0.35   1172.70    100.00    2.5000 RG_100yr             outfall1            
  Sub497                     0.26    879.30    100.00    2.5000 RG_100yr             outfall1            
  Sub498                     0.23    778.30    100.00    2.5000 RG_100yr             outfall1            
  Sub499                     0.37   1245.70    100.00    2.5000 RG_100yr             outfall1            
  Sub500                     0.32   1072.70    100.00    2.5000 RG_100yr             outfall1            
  Sub501                     0.35   1167.70    100.00    2.5000 RG_100yr             outfall1            
  Sub502                     0.00      0.00    100.00    1.5000 RG_100yr             outfall1            
  Sub503                     0.19    466.80    100.00    1.5000 RG_100yr             outfall1            


  *******************
  LID Control Summary
  *******************
                                   No. of        Unit        Unit      % Area    % Imperv      % Perv
  Subcatchment     LID Control      Units        Area       Width     Covered     Treated     Treated
  ---------------------------------------------------------------------------------------------------
  Sub000           GR-IN1               1      182.40       11.40       80.00      100.00        0.00
  Sub001           GR-IN1               1     1587.20       99.20       80.00      100.00        0.00
  Sub002           GR-IN1               1      375.20       23.45       80.00      100.00        0.00
  Sub003           GR-IN1               1      375.20       23.45       80.00      100.00        0.00
  Sub004           GR-IN1               1      460.80       19.20       80.00      100.00        0.00
  Sub005           GR-IN1               1      359.20       14.97       80.00      100.00        0.00
  Sub006           GR-IN1               1      359.20       14.97       80.00      100.00        0.00
  Sub007           GR-IN1               1      460.80       19.20       80.00      100.00        0.00
  Sub008           GR-IN1               1      460.80       19.20       80.00      100.00        0.00
  Sub009           GR-IN1               1      492.00       20.50       80.00      100.00        0.00
  Sub010           GR-IN1               1      492.00       20.50       80.00      100.00        0.00
  Sub011           GR-IN1               1      492.00       20.50       80.00      100.00        0.00
  Sub012           GR-IN1               1      460.80       19.20       80.00      100.00        0.00
  Sub013           GR-IN1               1      492.00       20.50       80.00      100.00        0.00
  Sub014           GR-IN1               1      492.00       20.50       80.00      100.00        0.00
  Sub015           GR-IN1               1      492.00       20.50       80.00      100.00        0.00
  Sub016           GR-IN1               1      460.80       19.20       80.00      100.00        0.00
  Sub017           GR-IN1               1      492.00       20.50       80.00      100.00        0.00
  Sub018           GR-IN1               1      492.00       20.50       80.00      100.00        0.00
  Sub019           GR-IN1               1      492.00       20.50       80.00      100.00        0.00
  Sub020           GR-IN1               1      460.80       19.20       80.00      100.00        0.00
  Sub021           GR-IN1               1     2044.00       85.17       80.00      100.00        0.00
  Sub022           GR-IN1               1      273.60       11.40       80.00      100.00        0.00
  Sub023           GR-IN1               1      504.00       21.00       80.00      100.00        0.00
  Sub024           GR-IN1               1      438.40       18.27       80.00      100.00        0.00
  Sub025           GR-IN1               1      388.80       16.20       80.00      100.00        0.00
  Sub026           GR-IN1               1      508.00       21.17       80.00      100.00        0.00
  Sub027           GR-IN1               1      790.40       49.40       80.00      100.00        0.00
  Sub028           GR-IN1               1      578.40       24.10       80.00      100.00        0.00
  Sub029           GR-IN1               1      592.00       24.67       80.00      100.00        0.00
  Sub030           GR-IN1               1      406.40       16.93       80.00      100.00        0.00
  Sub031           GR-IN1               1      365.60       15.23       80.00      100.00        0.00
  Sub032           GR-IN1               1      392.00       16.33       80.00      100.00        0.00
  Sub033           GR-IN1               1      320.00       13.33       80.00      100.00        0.00
  Sub034           GR-IN1               1      728.80       45.55       80.00      100.00        0.00
  Sub035           GR-IN1               1      440.80       18.37       80.00      100.00        0.00
  Sub036           GR-IN1               1      589.60       24.57       80.00      100.00        0.00
  Sub037           GR-IN1               1      406.40       16.93       80.00      100.00        0.00
  Sub038           GR-IN1               1      512.00       21.33       80.00      100.00        0.00
  Sub039           GR-IN1               1      496.00       20.67       80.00      100.00        0.00
  Sub040           GR-IN1               1      320.00       13.33       80.00      100.00        0.00
  Sub041           GR-IN1               1      705.60       29.40       80.00      100.00        0.00
  Sub042           GR-IN1               1      374.40       23.40       80.00      100.00        0.00
  Sub043           GR-IN1               1      513.60       21.40       80.00      100.00        0.00
  Sub044           GR-IN1               1      592.80       24.70       80.00      100.00        0.00
  Sub045           GR-IN1               1      406.40       16.93       80.00      100.00        0.00
  Sub046           GR-IN1               1      432.80       27.05       80.00      100.00        0.00
  Sub047           GR-IN1               1      464.00       19.33       80.00      100.00        0.00
  Sub048           GR-IN1               1      445.60       18.57       80.00      100.00        0.00
  Sub049           GR-IN1               1      780.00       32.50       80.00      100.00        0.00
  Sub050           GR-IN1               1      320.00       13.33       80.00      100.00        0.00
  Sub051           GR-IN1               1      464.00       19.33       80.00      100.00        0.00
  Sub052           GR-IN1               1      452.80       18.87       80.00      100.00        0.00
  Sub053           GR-IN1               1      820.80       34.20       80.00      100.00        0.00
  Sub054           GR-IN1               1      669.60       27.90       80.00      100.00        0.00
  Sub055           GR-IN1               1      580.00       24.17       80.00      100.00        0.00
  Sub056           GR-IN1               1      320.00       13.33       80.00      100.00        0.00
  Sub057           GR-IN1               1      976.80       61.05       80.00      100.00        0.00
  Sub058           GR-IN1               1      457.60       19.07       80.00      100.00        0.00
  Sub059           GR-IN1               1      464.00       19.33       80.00      100.00        0.00
  Sub060           GR-IN1               1      968.00       60.50       80.00      100.00        0.00
  Sub061           GR-IN1               1      676.80       28.20       80.00      100.00        0.00
  Sub062           GR-IN1               1      960.80       40.03       80.00      100.00        0.00
  Sub063           GR-IN1               1      743.20       30.97       80.00      100.00        0.00
  Sub064           GR-IN1               1      743.20       30.97       80.00      100.00        0.00
  Sub065           GR-IN1               1      743.20       30.97       80.00      100.00        0.00
  Sub066           GR-IN1               1     7417.60      309.07       80.00      100.00        0.00
  Sub067           GR-IN1               1      925.60       38.57       80.00      100.00        0.00
  Sub068           GR-IN1               1     5380.00      224.17       80.00      100.00        0.00
  Sub069           GR-IN1               1      959.20       39.97       80.00      100.00        0.00
  Sub070           GR-IN1               1     3472.80      144.70       80.00      100.00        0.00
  Sub071           GR-IN1               1     6396.80      266.53       80.00      100.00        0.00
  Sub073           GR-IN1               1      701.60       29.23       80.00      100.00        0.00
  Sub453           GR-IN1               1      384.00       24.00       80.00      100.00        0.00
  Sub454           GR-IN1               1      375.20       23.45       80.00      100.00        0.00
  Sub455           GR-IN1               1     2366.40       98.60       80.00      100.00        0.00
  Sub456           GR-IN1               1     1221.60       76.35       80.00      100.00        0.00
  Sub457           GR-IN1               1     7060.80      294.20       80.00      100.00        0.00
  Sub458           GR-IN1               1    12105.60      504.40       80.00      100.00        0.00
  Sub459           GR-IN1               1     3550.40      147.93       80.00      100.00        0.00
  Sub460           GR-IN1               1     3832.00      159.67       80.00      100.00        0.00
  Sub462           GR-IN1               1     1636.00       68.17       80.00      100.00        0.00
  Sub463           GR-IN1               1     2113.60       88.07       80.00      100.00        0.00
  Sub464           GR-IN1               1     2824.80      117.70       80.00      100.00        0.00
  Sub465           GR-IN1               1     2624.80      109.37       80.00      100.00        0.00
  Sub466           GR-IN1               1      716.80       29.87       80.00      100.00        0.00
  Sub467           GR-IN1               1      703.20       29.30       80.00      100.00        0.00
  Sub468           GR-IN1               1     1651.20       68.80       80.00      100.00        0.00
  Sub474           GR-IN1               1      272.00       11.33       80.00      100.00        0.00
  Sub475           GR-IN1               1      272.80       11.37       80.00      100.00        0.00
  
  
  ************
  Node Summary
  ************
                                           Invert      Max.    Ponded    External
  Name                 Type                 Elev.     Depth      Area    Inflow  
  -------------------------------------------------------------------------------
  outfall1             OUTFALL               1.00      0.00       0.0
  
  
  
  *********************
  Rainfall File Summary
  *********************
  Station    First        Last         Recording   Periods    Periods    Periods
  ID         Date         Date         Frequency  w/Precip    Missing    Malfunc.
  -------------------------------------------------------------------------------
  2-yr       01/01/2021   01/01/2021       5 min        24          0          0
  5-yr       01/01/2021   01/01/2021       5 min        24          0          0
  10-yr      01/01/2021   01/01/2021       5 min        24          0          0
  50-yr      01/01/2021   01/01/2021       5 min        24          0          0
  100-yr     01/01/2021   01/01/2021       5 min        24          0          0

  
  *********************************************************
  NOTE: The summary statistics displayed in this report are
  based on results found at every computational time step,  
  not just on results from each reporting time step.
  *********************************************************
  
  ****************
  Analysis Options
  ****************
  Flow Units ............... LPS
  Process Models:
    Rainfall/Runoff ........ YES
    RDII ................... NO
    Snowmelt ............... NO
    Groundwater ............ NO
    Flow Routing ........... NO
    Water Quality .......... NO
  Infiltration Method ...... GREEN_AMPT
  Surcharge Method ......... EXTRAN
  Starting Date ............ 01/01/2021 00:00:00
  Ending Date .............. 01/01/2021 04:00:00
  Antecedent Dry Days ...... 0.0
  Report Time Step ......... 00:01:00
  Wet Time Step ............ 00:01:00
  Dry Time Step ............ 01:00:00
  
  
  *********************
  Control Actions Taken
  *********************

  
  **************************        Volume         Depth
  Runoff Quantity Continuity     hectare-m            mm
  **************************     ---------       -------
  Initial LID Storage ......         0.211         4.469
  Total Precipitation ......         0.207         4.380
  Evaporation Loss .........         0.001         0.018
  Infiltration Loss ........         0.066         1.405
  Surface Runoff ...........         0.056         1.185
  Final Storage ............         0.296         6.259
  Continuity Error (%) .....        -0.199
  
  
  **************************        Volume        Volume
  Flow Routing Continuity        hectare-m      10^6 ltr
  **************************     ---------     ---------
  Dry Weather Inflow .......         0.000         0.000
  Wet Weather Inflow .......         0.056         0.560
  Groundwater Inflow .......         0.000         0.000
  RDII Inflow ..............         0.000         0.000
  External Inflow ..........         0.000         0.000
  External Outflow .........         0.056         0.560
  Flooding Loss ............         0.000         0.000
  Evaporation Loss .........         0.000         0.000
  Exfiltration Loss ........         0.000         0.000
  Initial Stored Volume ....         0.000         0.000
  Final Stored Volume ......         0.000         0.000
  Continuity Error (%) .....         0.000
  
  
  ***************************
  Subcatchment Runoff Summary
  ***************************
  
  ------------------------------------------------------------------------------------------------------------------------------
                            Total      Total      Total      Total     Imperv       Perv      Total       Total     Peak  Runoff
                           Precip      Runon       Evap      Infil     Runoff     Runoff     Runoff      Runoff   Runoff   Coeff
  Subcatchment                 mm         mm         mm         mm         mm         mm         mm    10^6 ltr      LPS
  ------------------------------------------------------------------------------------------------------------------------------
  Sub000                     4.38       0.00       0.03       0.00       0.60       0.00      -0.00       -0.00     0.00  -0.000
  Sub001                     4.38       0.00       0.03       0.00       0.60       0.00      -0.00       -0.00     0.00  -0.000
  Sub002                     4.38       0.00       0.03       0.00       0.60       0.00      -0.00       -0.00     0.00  -0.000
  Sub003                     4.38       0.00       0.03       0.00       0.60       0.00      -0.00       -0.00     0.00  -0.000
  Sub004                     4.38       0.00       0.03       0.00       0.59       0.00      -0.00       -0.00     0.00  -0.000
  Sub005                     4.38       0.00       0.03       0.00       0.59       0.00       0.00        0.00     0.00   0.000
  Sub006                     4.38       0.00       0.03       0.00       0.59       0.00       0.00        0.00     0.00   0.000
  Sub007                     4.38       0.00       0.03       0.00       0.59       0.00      -0.00       -0.00     0.00  -0.000
  Sub008                     4.38       0.00       0.03       0.00       0.59       0.00      -0.00       -0.00     0.00  -0.000
  Sub009                     4.38       0.00       0.03       0.00       0.59       0.00      -0.00       -0.00     0.00  -0.000
  Sub010                     4.38       0.00       0.03       0.00       0.59       0.00      -0.00       -0.00     0.00  -0.000
  Sub011                     4.38       0.00       0.03       0.00       0.59       0.00      -0.00       -0.00     0.00  -0.000
  Sub012                     4.38       0.00       0.03       0.00       0.59       0.00      -0.00       -0.00     0.00  -0.000
  Sub013                     4.38       0.00       0.03       0.00       0.59       0.00      -0.00       -0.00     0.00  -0.000
  Sub014                     4.38       0.00       0.03       0.00       0.59       0.00      -0.00       -0.00     0.00  -0.000
  Sub015                     4.38       0.00       0.03       0.00       0.59       0.00      -0.00       -0.00     0.00  -0.000
  Sub016                     4.38       0.00       0.03       0.00       0.59       0.00      -0.00       -0.00     0.00  -0.000
  Sub017                     4.38       0.00       0.03       0.00       0.59       0.00      -0.00       -0.00     0.00  -0.000
  Sub018                     4.38       0.00       0.03       0.00       0.59       0.00      -0.00       -0.00     0.00  -0.000
  Sub019                     4.38       0.00       0.03       0.00       0.59       0.00      -0.00       -0.00     0.00  -0.000
  Sub020                     4.38       0.00       0.03       0.00       0.59       0.00      -0.00       -0.00     0.00  -0.000
  Sub021                     4.38       0.00       0.03       0.00       0.59       0.00      -0.00       -0.00     0.00  -0.000
  Sub022                     4.38       0.00       0.03       0.00       0.59       0.00       0.00        0.00     0.00   0.000
  Sub023                     4.38       0.00       0.03       0.00       0.59       0.00       0.00        0.00     0.00   0.000
  Sub024                     4.38       0.00       0.03       0.00       0.59       0.00       0.00        0.00     0.00   0.000
  Sub025                     4.38       0.00       0.03       0.00       0.59       0.00      -0.00       -0.00     0.00  -0.000
  Sub026                     4.38       0.00       0.03       0.00       0.59       0.00      -0.00       -0.00     0.00  -0.000
  Sub027                     4.38       0.00       0.03       0.00       0.60       0.00      -0.00       -0.00     0.00  -0.000
  Sub028                     4.38       0.00       0.03       0.00       0.59       0.00       0.00        0.00     0.00   0.000
  Sub029                     4.38       0.00       0.03       0.00       0.59       0.00       0.00        0.00     0.00   0.000
  Sub030                     4.38       0.00       0.03       0.00       0.59       0.00      -0.00       -0.00     0.00  -0.000
  Sub031                     4.38       0.00       0.03       0.00       0.59       0.00       0.00        0.00     0.00   0.000
  Sub032                     4.38       0.00       0.03       0.00       0.59       0.00       0.00        0.00     0.00   0.000
  Sub033                     4.38       0.00       0.03       0.00       0.59       0.00       0.00        0.00     0.00   0.000
  Sub034                     4.38       0.00       0.03       0.00       0.60       0.00      -0.00       -0.00     0.00  -0.000
  Sub035                     4.38       0.00       0.03       0.00       0.59       0.00      -0.00       -0.00     0.00  -0.000
  Sub036                     4.38       0.00       0.03       0.00       0.59       0.00      -0.00       -0.00     0.00  -0.000
  Sub037                     4.38       0.00       0.03       0.00       0.59       0.00      -0.00       -0.00     0.00  -0.000
  Sub038                     4.38       0.00       0.03       0.00       0.59       0.00      -0.00       -0.00     0.00  -0.000
  Sub039                     4.38       0.00       0.03       0.00       0.59       0.00      -0.00       -0.00     0.00  -0.000
  Sub040                     4.38       0.00       0.03       0.00       0.59       0.00       0.00        0.00     0.00   0.000
  Sub041                     4.38       0.00       0.03       0.00       0.59       0.00      -0.00       -0.00     0.00  -0.000
  Sub042                     4.38       0.00       0.03       0.00       0.60       0.00      -0.00       -0.00     0.00  -0.000
  Sub043                     4.38       0.00       0.03       0.00       0.59       0.00       0.00        0.00     0.00   0.000
  Sub044                     4.38       0.00       0.03       0.00       0.59       0.00       0.00        0.00     0.00   0.000
  Sub045                     4.38       0.00       0.03       0.00       0.59       0.00      -0.00       -0.00     0.00  -0.000
  Sub046                     4.38       0.00       0.03       0.00       0.60       0.00       0.00        0.00     0.00   0.000
  Sub047                     4.38       0.00       0.03       0.00       0.59       0.00      -0.00       -0.00     0.00  -0.000
  Sub048                     4.38       0.00       0.03       0.00       0.59       0.00       0.00        0.00     0.00   0.000
  Sub049                     4.38       0.00       0.03       0.00       0.59       0.00      -0.00       -0.00     0.00  -0.000
  Sub050                     4.38       0.00       0.03       0.00       0.59       0.00       0.00        0.00     0.00   0.000
  Sub051                     4.38       0.00       0.03       0.00       0.59       0.00      -0.00       -0.00     0.00  -0.000
  Sub052                     4.38       0.00       0.03       0.00       0.59       0.00      -0.00       -0.00     0.00  -0.000
  Sub053                     4.38       0.00       0.03       0.00       0.59       0.00      -0.00       -0.00     0.00  -0.000
  Sub054                     4.38       0.00       0.03       0.00       0.59       0.00       0.00        0.00     0.00   0.000
  Sub055                     4.38       0.00       0.03       0.00       0.59       0.00       0.00        0.00     0.00   0.000
  Sub056                     4.38       0.00       0.03       0.00       0.59       0.00       0.00        0.00     0.00   0.000
  Sub057                     4.38       0.00       0.03       0.00       0.60       0.00       0.00        0.00     0.00   0.000
  Sub058                     4.38       0.00       0.03       0.00       0.59       0.00      -0.00       -0.00     0.00  -0.000
  Sub059                     4.38       0.00       0.03       0.00       0.59       0.00      -0.00       -0.00     0.00  -0.000
  Sub060                     4.38       0.00       0.03       0.00       0.60       0.00       0.00        0.00     0.00   0.000
  Sub061                     4.38       0.00       0.03       0.00       0.59       0.00       0.00        0.00     0.00   0.000
  Sub062                     4.38       0.00       0.03       0.00       0.59       0.00      -0.00       -0.00     0.00  -0.000
  Sub063                     4.38       0.00       0.03       0.00       0.59       0.00      -0.00       -0.00     0.00  -0.000
  Sub064                     4.38       0.00       0.03       0.00       0.59       0.00      -0.00       -0.00     0.00  -0.000
  Sub065                     4.38       0.00       0.03       0.00       0.59       0.00      -0.00       -0.00     0.00  -0.000
  Sub066                     4.38       0.00       0.03       0.00       0.59       0.00       0.00        0.00     0.00   0.000
  Sub067                     4.38       0.00       0.03       0.00       0.59       0.00       0.00        0.00     0.00   0.000
  Sub068                     4.38       0.00       0.03       0.00       0.59       0.00      -0.00       -0.00     0.00  -0.000
  Sub069                     4.38       0.00       0.03       0.00       0.59       0.00      -0.00       -0.00     0.00  -0.000
  Sub070                     4.38       0.00       0.03       0.00       0.59       0.00      -0.00       -0.00     0.00  -0.000
  Sub071                     4.38       0.00       0.03       0.00       0.59       0.00      -0.00       -0.00     0.00  -0.000
  Sub072                     4.38       0.00       0.02       0.88       2.37       0.00       2.37        0.02    34.11   0.540
  Sub073                     4.38       0.00       0.03       0.00       0.59       0.00      -0.00       -0.00     0.00  -0.000
  Sub074                     4.38       0.00       0.00       4.38       0.00       0.00       0.00        0.00     0.00   0.000
  Sub075                     4.38       0.00       0.02       0.00       2.98       0.00       2.98        0.00     0.14   0.680
  Sub076                     4.38       0.00       0.02       0.00       2.98       0.00       2.98        0.00     2.75   0.680
  Sub077                     4.38       0.00       0.02       0.00       2.98       0.00       2.98        0.00     2.37   0.680
  Sub078                     4.38       0.00       0.02       0.00       2.98       0.00       2.98        0.00     0.05   0.680
  Sub079                     4.38       0.00       0.00       4.38       0.00       0.00       0.00        0.00     0.00   0.000
  Sub080                     4.38       0.00       0.02       0.00       2.98       0.00       2.98        0.00     1.04   0.680
  Sub081                     4.38       0.00       0.02       0.00       2.98       0.00       2.98        0.01    10.69   0.680
  Sub082                     4.38       0.00       0.02       0.00       2.98       0.00       2.98        0.00     1.63   0.680
  Sub083                     4.38       0.00       0.02       0.00       2.98       0.00       2.98        0.00     0.22   0.680
  Sub084                     4.38       0.00       0.02       0.00       2.98       0.00       2.98        0.00     0.13   0.680
  Sub085                     4.38       0.00       0.02       0.00       2.98       0.00       2.98        0.00     0.13   0.680
  Sub086                     4.38       0.00       0.02       0.00       2.98       0.00       2.98        0.00     0.13   0.680
  Sub087                     4.38       0.00       0.02       0.00       2.98       0.00       2.98        0.00     0.13   0.680
  Sub088                     4.38       0.00       0.02       0.00       2.98       0.00       2.98        0.00     0.16   0.680
[...]
  Sub438                     4.38       0.00       0.00       4.38       0.00       0.00       0.00        0.00     0.00   0.000
  Sub439                     4.38       0.00       0.00       4.38       0.00       0.00       0.00        0.00     0.00   0.000
  Sub440                     4.38       0.00       0.00       4.38       0.00       0.00       0.00        0.00     0.00   0.000
  Sub441                     4.38       0.00       0.00       4.38       0.00       0.00       0.00        0.00     0.00   0.000
  Sub442                     4.38       0.00       0.00       4.38       0.00       0.00       0.00        0.00     0.00   0.000
  Sub443                     4.38       0.00       0.00       4.38       0.00       0.00       0.00        0.00     0.00   0.000
  Sub444                     4.38       0.00       0.00       4.38       0.00       0.00       0.00        0.00     0.00   0.000
  Sub445                     4.38       0.00       0.00       4.38       0.00       0.00       0.00        0.00     0.00   0.000
  Sub446                     4.38       0.00       0.00       4.38       0.00       0.00       0.00        0.00     0.00   0.000
  Sub447                     4.38       0.00       0.00       4.38       0.00       0.00       0.00        0.00     0.00   0.000
  Sub448                     4.38       0.00       0.00       4.38       0.00       0.00       0.00        0.00     0.00   0.000
  Sub449                     4.38       0.00       0.02       0.00       2.98       0.00       2.98        0.01    12.85   0.680
  Sub450                     4.38       0.00       0.02       0.00       2.98       0.00       2.98        0.00     3.80   0.680
  Sub451                     4.38       0.00       0.02       0.00       3.00       0.00       3.00        0.01    13.84   0.684
  Sub452                     4.38       0.00       0.02       0.88       2.37       0.00       2.37        0.00     2.34   0.540
  Sub453                     4.38       0.00       0.03       0.00       0.60       0.00       0.00        0.00     0.00   0.000
  Sub454                     4.38       0.00       0.03       0.00       0.60       0.00      -0.00       -0.00     0.00  -0.000
  Sub455                     4.38       0.00       0.03       0.00       0.59       0.00       0.00        0.00     0.00   0.000
  Sub456                     4.38       0.00       0.03       0.00       0.60       0.00       0.00        0.00     0.00   0.000
  Sub457                     4.38       0.00       0.03       0.00       0.59       0.00      -0.00       -0.00     0.00  -0.000
  Sub458                     4.38       0.00       0.03       0.00       0.59       0.00      -0.00       -0.00     0.00  -0.000
  Sub459                     4.38       0.00       0.03       0.00       0.59       0.00      -0.00       -0.00     0.00  -0.000
  Sub460                     4.38       0.00       0.03       0.00       0.59       0.00      -0.00       -0.00     0.00  -0.000
  Sub461                     4.38       0.00       0.02       0.88       2.37       0.00       2.37        0.01    21.63   0.540
  Sub462                     4.38       0.00       0.03       0.00       0.59       0.00      -0.00       -0.00     0.00  -0.000
  Sub463                     4.38       0.00       0.03       0.00       0.59       0.00      -0.00       -0.00     0.00  -0.000
  Sub464                     4.38       0.00       0.03       0.00       0.59       0.00      -0.00       -0.00     0.00  -0.000
  Sub465                     4.38       0.00       0.03       0.00       0.59       0.00       0.00        0.00     0.00   0.000
  Sub466                     4.38       0.00       0.03       0.00       0.59       0.00      -0.00       -0.00     0.00  -0.000
  Sub467                     4.38       0.00       0.03       0.00       0.59       0.00       0.00        0.00     0.00   0.000
  Sub468                     4.38       0.00       0.03       0.00       0.59       0.00       0.00        0.00     0.00   0.000
  Sub469                     4.38       0.00       0.02       0.00       2.98       0.00       2.98        0.00     0.33   0.680
  Sub470                     4.38       0.00       0.02       0.00       2.98       0.00       2.98        0.00     0.47   0.680
  Sub471                     4.38       0.00       0.02       0.00       2.98       0.00       2.98        0.00     0.24   0.680
  Sub472                     4.38       0.00       0.02       0.00       2.98       0.00       2.98        0.00     0.35   0.680
  Sub473                     4.38       0.00       0.02       0.00       2.98       0.00       2.98        0.00     0.18   0.680
  Sub474                     4.38       0.00       0.03       0.00       0.59       0.00       0.00        0.00     0.00   0.000
  Sub475                     4.38       0.00       0.03       0.00       0.59       0.00      -0.00       -0.00     0.00  -0.000
  Sub476                     4.38       0.00       0.00       4.38       0.00       0.00       0.00        0.00     0.00   0.000
  Sub477                     4.38       0.00       0.00       4.38       0.00       0.00       0.00        0.00     0.00   0.000
  Sub478                     4.38       0.00       0.00       4.38       0.00       0.00       0.00        0.00     0.00   0.000
  Sub479                     4.38       0.00       0.00       4.38       0.00       0.00       0.00        0.00     0.00   0.000
  Sub480                     4.38       0.00       0.02       0.00       2.98       0.00       2.98        0.01    18.83   0.680
  Sub481                     4.38       0.00       0.02       0.00       2.98       0.00       2.98        0.01    10.50   0.680
  Sub482                     4.38       0.00       0.02       0.00       2.98       0.00       2.98        0.00     7.39   0.680
  Sub483                     4.38       0.00       0.02       0.00       2.98       0.00       2.98        0.00     7.47   0.680
  Sub484                     4.38       0.00       0.02       0.00       2.98       0.00       2.98        0.00     7.73   0.680
  Sub485                     4.38       0.00       0.02       0.00       2.98       0.00       2.98        0.00     6.04   0.680
  Sub486                     4.38       0.00       0.02       0.00       3.00       0.00       3.00        0.01    12.61   0.684
  Sub487                     4.38       0.00       0.02       0.00       3.00       0.00       3.00        0.02    31.36   0.684
  Sub488                     4.38       0.00       0.02       0.00       3.00       0.00       3.00        0.01    20.91   0.684
  Sub489                     4.38       0.00       0.02       0.00       3.00       0.00       3.00        0.01    21.21   0.684
  Sub490                     4.38       0.00       0.02       0.00       3.00       0.00       3.00        0.01    20.75   0.684
  Sub491                     4.38       0.00       0.02       0.00       3.00       0.00       3.00        0.01    17.36   0.684
  Sub492                     4.38       0.00       0.02       0.00       3.00       0.00       3.00        0.01    12.26   0.684
  Sub493                     4.38       0.00       0.02       0.00       3.00       0.00       3.00        0.01    14.57   0.684
  Sub494                     4.38       0.00       0.02       0.00       3.00       0.00       3.00        0.01    16.82   0.684
  Sub495                     4.38       0.00       0.02       0.00       3.00       0.00       3.00        0.01    21.22   0.684
  Sub496                     4.38       0.00       0.02       0.00       3.00       0.00       3.00        0.01    20.41   0.684
  Sub497                     4.38       0.00       0.02       0.00       3.00       0.00       3.00        0.01    15.30   0.684
  Sub498                     4.38       0.00       0.02       0.00       3.00       0.00       3.00        0.01    13.55   0.684
  Sub499                     4.38       0.00       0.02       0.00       3.00       0.00       3.00        0.01    21.68   0.684
  Sub500                     4.38       0.00       0.02       0.00       3.00       0.00       3.00        0.01    18.67   0.684
  Sub501                     4.38       0.00       0.02       0.00       3.00       0.00       3.00        0.01    20.32   0.684
  Sub503                     4.38       0.00       0.02       0.00       2.98       0.00       2.98        0.01    10.77   0.680
  

  ***********************
  LID Performance Summary
  ***********************

  --------------------------------------------------------------------------------------------------------------------
                                         Total      Evap     Infil   Surface    Drain    Initial     Final  Continuity
                                        Inflow      Loss      Loss   Outflow   Outflow   Storage   Storage       Error
  Subcatchment      LID Control             mm        mm        mm        mm        mm        mm        mm           %
  --------------------------------------------------------------------------------------------------------------------
  Sub000            GR-IN1                5.13      0.03      0.00      0.00      0.00     20.00     25.10       -0.00
  Sub001            GR-IN1                5.13      0.03      0.00      0.00      0.00     20.00     25.10       -0.00
  Sub002            GR-IN1                5.13      0.03      0.00      0.00      0.00     20.00     25.10       -0.00
  Sub003            GR-IN1                5.13      0.03      0.00      0.00      0.00     20.00     25.10       -0.00
  Sub004            GR-IN1                5.12      0.03      0.00      0.00      0.00     20.00     25.09       -0.00
  Sub005            GR-IN1                5.12      0.03      0.00      0.00      0.00     20.00     25.09       -0.00
  Sub006            GR-IN1                5.12      0.03      0.00      0.00      0.00     20.00     25.09       -0.00
  Sub007            GR-IN1                5.12      0.03      0.00      0.00      0.00     20.00     25.09       -0.00
  Sub008            GR-IN1                5.12      0.03      0.00      0.00      0.00     20.00     25.09       -0.00
  Sub009            GR-IN1                5.12      0.03      0.00      0.00      0.00     20.00     25.09       -0.00
  Sub010            GR-IN1                5.12      0.03      0.00      0.00      0.00     20.00     25.09       -0.00
  Sub011            GR-IN1                5.12      0.03      0.00      0.00      0.00     20.00     25.09       -0.00
  Sub012            GR-IN1                5.12      0.03      0.00      0.00      0.00     20.00     25.09       -0.00
  Sub013            GR-IN1                5.12      0.03      0.00      0.00      0.00     20.00     25.09       -0.00
  Sub014            GR-IN1                5.12      0.03      0.00      0.00      0.00     20.00     25.09       -0.00
  Sub015            GR-IN1                5.12      0.03      0.00      0.00      0.00     20.00     25.09       -0.00
  Sub016            GR-IN1                5.12      0.03      0.00      0.00      0.00     20.00     25.09       -0.00
  Sub017            GR-IN1                5.12      0.03      0.00      0.00      0.00     20.00     25.09       -0.00
  Sub018            GR-IN1                5.12      0.03      0.00      0.00      0.00     20.00     25.09       -0.00
  Sub019            GR-IN1                5.12      0.03      0.00      0.00      0.00     20.00     25.09       -0.00
  Sub020            GR-IN1                5.12      0.03      0.00      0.00      0.00     20.00     25.09       -0.00
  Sub021            GR-IN1                5.12      0.03      0.00      0.00      0.00     20.00     25.09       -0.00
  Sub022            GR-IN1                5.12      0.03      0.00      0.00      0.00     20.00     25.09       -0.00
  Sub023            GR-IN1                5.12      0.03      0.00      0.00      0.00     20.00     25.09       -0.00
  Sub024            GR-IN1                5.12      0.03      0.00      0.00      0.00     20.00     25.09       -0.00
  Sub025            GR-IN1                5.12      0.03      0.00      0.00      0.00     20.00     25.09       -0.00
  Sub026            GR-IN1                5.12      0.03      0.00      0.00      0.00     20.00     25.09       -0.00
  Sub027            GR-IN1                5.13      0.03      0.00      0.00      0.00     20.00     25.10       -0.00
  Sub028            GR-IN1                5.12      0.03      0.00      0.00      0.00     20.00     25.09       -0.00
  Sub029            GR-IN1                5.12      0.03      0.00      0.00      0.00     20.00     25.09       -0.00
  Sub030            GR-IN1                5.12      0.03      0.00      0.00      0.00     20.00     25.09       -0.00
  Sub031            GR-IN1                5.12      0.03      0.00      0.00      0.00     20.00     25.09       -0.00
  Sub032            GR-IN1                5.12      0.03      0.00      0.00      0.00     20.00     25.09       -0.00
  Sub033            GR-IN1                5.12      0.03      0.00      0.00      0.00     20.00     25.09       -0.00
  Sub034            GR-IN1                5.13      0.03      0.00      0.00      0.00     20.00     25.10       -0.00
  Sub035            GR-IN1                5.12      0.03      0.00      0.00      0.00     20.00     25.09       -0.00
  Sub036            GR-IN1                5.12      0.03      0.00      0.00      0.00     20.00     25.09       -0.00
  Sub037            GR-IN1                5.12      0.03      0.00      0.00      0.00     20.00     25.09       -0.00
  Sub038            GR-IN1                5.12      0.03      0.00      0.00      0.00     20.00     25.09       -0.00
  Sub039            GR-IN1                5.12      0.03      0.00      0.00      0.00     20.00     25.09       -0.00
  Sub040            GR-IN1                5.12      0.03      0.00      0.00      0.00     20.00     25.09       -0.00
  Sub041            GR-IN1                5.12      0.03      0.00      0.00      0.00     20.00     25.09       -0.00
  Sub042            GR-IN1                5.13      0.03      0.00      0.00      0.00     20.00     25.10       -0.00
  Sub043            GR-IN1                5.12      0.03      0.00      0.00      0.00     20.00     25.09       -0.00
  Sub044            GR-IN1                5.12      0.03      0.00      0.00      0.00     20.00     25.09       -0.00
  Sub045            GR-IN1                5.12      0.03      0.00      0.00      0.00     20.00     25.09       -0.00
  Sub046            GR-IN1                5.13      0.03      0.00      0.00      0.00     20.00     25.10       -0.00
  Sub047            GR-IN1                5.12      0.03      0.00      0.00      0.00     20.00     25.09       -0.00
  Sub048            GR-IN1                5.12      0.03      0.00      0.00      0.00     20.00     25.09       -0.00
  Sub049            GR-IN1                5.12      0.03      0.00      0.00      0.00     20.00     25.09       -0.00
  Sub050            GR-IN1                5.12      0.03      0.00      0.00      0.00     20.00     25.09       -0.00
  Sub051            GR-IN1                5.12      0.03      0.00      0.00      0.00     20.00     25.09       -0.00
  Sub052            GR-IN1                5.12      0.03      0.00      0.00      0.00     20.00     25.09       -0.00
  Sub053            GR-IN1                5.12      0.03      0.00      0.00      0.00     20.00     25.09       -0.00
  Sub054            GR-IN1                5.12      0.03      0.00      0.00      0.00     20.00     25.09       -0.00
  Sub055            GR-IN1                5.12      0.03      0.00      0.00      0.00     20.00     25.09       -0.00
  Sub056            GR-IN1                5.12      0.03      0.00      0.00      0.00     20.00     25.09       -0.00
  Sub057            GR-IN1                5.13      0.03      0.00      0.00      0.00     20.00     25.10       -0.00
  Sub058            GR-IN1                5.12      0.03      0.00      0.00      0.00     20.00     25.09       -0.00
  Sub059            GR-IN1                5.12      0.03      0.00      0.00      0.00     20.00     25.09       -0.00
  Sub060            GR-IN1                5.13      0.03      0.00      0.00      0.00     20.00     25.10       -0.00
  Sub061            GR-IN1                5.12      0.03      0.00      0.00      0.00     20.00     25.09       -0.00
  Sub062            GR-IN1                5.12      0.03      0.00      0.00      0.00     20.00     25.09       -0.00
  Sub063            GR-IN1                5.12      0.03      0.00      0.00      0.00     20.00     25.09       -0.00
  Sub064            GR-IN1                5.12      0.03      0.00      0.00      0.00     20.00     25.09       -0.00
  Sub065            GR-IN1                5.12      0.03      0.00      0.00      0.00     20.00     25.09       -0.00
  Sub066            GR-IN1                5.12      0.03      0.00      0.00      0.00     20.00     25.09       -0.00
  Sub067            GR-IN1                5.12      0.03      0.00      0.00      0.00     20.00     25.09       -0.00
  Sub068            GR-IN1                5.12      0.03      0.00      0.00      0.00     20.00     25.09       -0.00
  Sub069            GR-IN1                5.12      0.03      0.00      0.00      0.00     20.00     25.09       -0.00
  Sub070            GR-IN1                5.12      0.03      0.00      0.00      0.00     20.00     25.09       -0.00
  Sub071            GR-IN1                5.12      0.03      0.00      0.00      0.00     20.00     25.09       -0.00
  Sub073            GR-IN1                5.12      0.03      0.00      0.00      0.00     20.00     25.09       -0.00
  Sub453            GR-IN1                5.13      0.03      0.00      0.00      0.00     20.00     25.10       -0.00
  Sub454            GR-IN1                5.13      0.03      0.00      0.00      0.00     20.00     25.10       -0.00
  Sub455            GR-IN1                5.12      0.03      0.00      0.00      0.00     20.00     25.09       -0.00
  Sub456            GR-IN1                5.13      0.03      0.00      0.00      0.00     20.00     25.10       -0.00
  Sub457            GR-IN1                5.12      0.03      0.00      0.00      0.00     20.00     25.09       -0.00
  Sub458            GR-IN1                5.12      0.03      0.00      0.00      0.00     20.00     25.09       -0.00
  Sub459            GR-IN1                5.12      0.03      0.00      0.00      0.00     20.00     25.09       -0.00
  Sub460            GR-IN1                5.12      0.03      0.00      0.00      0.00     20.00     25.09       -0.00
  Sub462            GR-IN1                5.12      0.03      0.00      0.00      0.00     20.00     25.09       -0.00
  Sub463            GR-IN1                5.12      0.03      0.00      0.00      0.00     20.00     25.09       -0.00
  Sub464            GR-IN1                5.12      0.03      0.00      0.00      0.00     20.00     25.09       -0.00
  Sub465            GR-IN1                5.12      0.03      0.00      0.00      0.00     20.00     25.09       -0.00
  Sub466            GR-IN1                5.12      0.03      0.00      0.00      0.00     20.00     25.09       -0.00
  Sub467            GR-IN1                5.12      0.03      0.00      0.00      0.00     20.00     25.09       -0.00
  Sub468            GR-IN1                5.12      0.03      0.00      0.00      0.00     20.00     25.09       -0.00
  Sub474            GR-IN1                5.12      0.03      0.00      0.00      0.00     20.00     25.09       -0.00
  Sub475            GR-IN1                5.12      0.03      0.00      0.00      0.00     20.00     25.09       -0.00

  Analysis begun on:  Fri Sep 24 18:54:47 2021
  Analysis ended on:  Fri Sep 24 18:54:47 2021
  Total elapsed time: < 1 sec